/*--------------------------------*- C++ -*----------------------------------*\
| =========                 |                                                 |
| \\      /  F ield         | OpenFOAM: The Open Source CFD Toolbox           |
|  \\    /   O peration     | Version:  4.0                                   |
|   \\  /    A nd           | Web:      www.OpenFOAM.org                      |
|    \\/     M anipulation  |                                                 |
\*---------------------------------------------------------------------------*/
FoamFile
{
    version     2.0;
    format      ascii;
    class       dictionary;
    location    "system";
    object      setFieldsDict;
}
// * * * * * * * * * * * * * * * * * * * * * * * * * * * * * * * * * * * * * //


defaultFieldValues
(
	volScalarFieldValue phi 0.0
	volScalarFieldValue mu_1 0.0
	volScalarFieldValue mu_2 0.0
	volScalarFieldValue theta 0.0
	volVectorFieldValue D (0 0 0)

);

regions
(

// nonuniform composition region starts

#include "../setComposition"
// nonuniform composition region ends

);


// ************************************************************************* //
